Version 4
SHEET 1 2484 680
WIRE -128 -80 -128 -96
WIRE -16 -80 -16 -96
WIRE 112 -80 112 -96
WIRE -128 -64 -128 -80
WIRE -16 -64 -16 -80
WIRE 112 -64 112 -80
WIRE -128 48 -128 16
WIRE -16 48 -16 16
WIRE 112 48 112 16
WIRE 2144 256 -48 256
WIRE 2144 320 2144 256
WIRE 2272 320 2224 320
WIRE 336 336 320 336
WIRE 368 336 336 336
WIRE 832 336 816 336
WIRE 864 336 832 336
WIRE 1328 336 1312 336
WIRE 1360 336 1328 336
WIRE 1824 336 1808 336
WIRE 1856 336 1824 336
WIRE 2320 336 2304 336
WIRE 2352 336 2320 336
WIRE 368 384 368 336
WIRE 864 384 864 336
WIRE 1360 384 1360 336
WIRE 1856 384 1856 336
WIRE 2352 384 2352 336
WIRE 48 400 0 400
WIRE 160 400 128 400
WIRE 336 400 240 400
WIRE 544 400 496 400
WIRE 656 400 624 400
WIRE 832 400 736 400
WIRE 1040 400 992 400
WIRE 1152 400 1120 400
WIRE 1328 400 1232 400
WIRE 1536 400 1488 400
WIRE 1648 400 1616 400
WIRE 1824 400 1728 400
WIRE 2144 400 1984 400
WIRE 2272 400 2272 320
WIRE 2272 400 2224 400
WIRE 2320 400 2272 400
WIRE 432 416 400 416
WIRE 928 416 896 416
WIRE 1424 416 1392 416
WIRE 1920 416 1888 416
WIRE 2416 416 2384 416
WIRE -48 432 -48 256
WIRE 0 432 0 400
WIRE 0 432 -48 432
WIRE 112 432 0 432
WIRE 240 432 176 432
WIRE 320 432 240 432
WIRE 336 432 320 432
WIRE 432 432 432 416
WIRE 496 432 496 400
WIRE 496 432 432 432
WIRE 608 432 496 432
WIRE 672 432 640 432
WIRE 736 432 672 432
WIRE 816 432 736 432
WIRE 832 432 816 432
WIRE 928 432 928 416
WIRE 992 432 992 400
WIRE 992 432 928 432
WIRE 1104 432 992 432
WIRE 1168 432 1136 432
WIRE 1232 432 1168 432
WIRE 1312 432 1232 432
WIRE 1328 432 1312 432
WIRE 1424 432 1424 416
WIRE 1488 432 1488 400
WIRE 1488 432 1424 432
WIRE 1600 432 1488 432
WIRE 1664 432 1632 432
WIRE 1728 432 1664 432
WIRE 1808 432 1728 432
WIRE 1824 432 1808 432
WIRE 1920 432 1920 416
WIRE 1984 432 1984 400
WIRE 1984 432 1920 432
WIRE 2320 432 2224 432
WIRE 2416 432 2416 416
WIRE 2480 432 2416 432
WIRE -48 480 -48 432
WIRE 368 480 368 448
WIRE 416 480 368 480
WIRE 864 480 864 448
WIRE 912 480 864 480
WIRE 1360 480 1360 448
WIRE 1408 480 1360 480
WIRE 1856 480 1856 448
WIRE 1904 480 1856 480
WIRE 2352 480 2352 448
WIRE 2400 480 2352 480
WIRE 320 512 320 432
WIRE 816 512 816 432
WIRE 1312 512 1312 432
WIRE 1808 512 1808 432
WIRE 192 592 176 592
WIRE 272 592 192 592
WIRE 656 592 640 592
WIRE 768 592 656 592
WIRE 1152 592 1136 592
WIRE 1264 592 1152 592
WIRE 1664 592 1632 592
WIRE 1760 592 1664 592
WIRE 320 624 320 608
WIRE 816 624 816 608
WIRE 1312 624 1312 608
WIRE 1808 624 1808 608
FLAG 336 336 VDD
FLAG 416 480 VSS
FLAG 112 48 0
FLAG -16 48 0
FLAG -16 -80 VDD
FLAG 112 -80 VSS
FLAG -48 560 0
FLAG 832 336 VDD
FLAG 912 480 VSS
FLAG 1328 336 VDD
FLAG 1408 480 VSS
FLAG 1824 336 VDD
FLAG 1904 480 VSS
FLAG 2320 336 VDD
FLAG 2400 480 VSS
FLAG 2224 512 0
FLAG 240 512 0
FLAG 816 624 0
FLAG 1312 624 0
FLAG 1808 624 0
FLAG 736 512 0
FLAG 1232 512 0
FLAG 1728 512 0
FLAG 192 592 Vcontrol
FLAG 656 592 Vcontrol
FLAG 1152 592 Vcontrol
FLAG 1664 592 Vcontrol
FLAG -128 48 0
FLAG -128 -80 Vcontrol
SYMBOL opamp5 368 352 R0
SYMATTR InstName U1
SYMATTR Value LF411C
SYMBOL cap 176 416 R90
WINDOW 0 12 7 VBottom 2
WINDOW 3 32 32 VTop 2
SYMATTR InstName C1
SYMATTR Value 0.05µ
SYMBOL res 144 384 R90
WINDOW 0 0 56 VBottom 2
WINDOW 3 16 108 VTop 2
SYMATTR InstName R1
SYMATTR Value 10K
SYMBOL res 256 384 R90
WINDOW 0 0 56 VBottom 2
WINDOW 3 16 0 VTop 2
SYMATTR InstName R2
SYMATTR Value 10K
SYMBOL res 224 416 R0
SYMATTR InstName R3
SYMATTR Value 22K
SYMBOL voltage -48 464 R0
SYMATTR InstName V1
SYMATTR Value SINE(0 200mV 450)
SYMBOL voltage -16 -80 R0
SYMATTR InstName V2
SYMATTR Value 5V
SYMBOL voltage 112 -80 R0
SYMATTR InstName V3
SYMATTR Value -5V
SYMBOL opamp5 864 352 R0
SYMATTR InstName U2
SYMATTR Value LF411C
SYMBOL cap 672 416 R90
WINDOW 0 12 7 VBottom 2
WINDOW 3 32 32 VTop 2
SYMATTR InstName C2
SYMATTR Value 0.05µ
SYMBOL res 640 384 R90
WINDOW 0 0 56 VBottom 2
WINDOW 3 16 108 VTop 2
SYMATTR InstName R4
SYMATTR Value 10K
SYMBOL res 752 384 R90
WINDOW 0 0 56 VBottom 2
WINDOW 3 16 0 VTop 2
SYMATTR InstName R5
SYMATTR Value 10K
SYMBOL res 720 416 R0
SYMATTR InstName R6
SYMATTR Value 22K
SYMBOL opamp5 1360 352 R0
SYMATTR InstName U3
SYMATTR Value LF411C
SYMBOL cap 1168 416 R90
WINDOW 0 12 7 VBottom 2
WINDOW 3 32 32 VTop 2
SYMATTR InstName C3
SYMATTR Value 0.05µ
SYMBOL res 1136 384 R90
WINDOW 0 0 56 VBottom 2
WINDOW 3 16 108 VTop 2
SYMATTR InstName R7
SYMATTR Value 10K
SYMBOL res 1248 384 R90
WINDOW 0 0 56 VBottom 2
WINDOW 3 16 0 VTop 2
SYMATTR InstName R8
SYMATTR Value 10K
SYMBOL res 1216 416 R0
SYMATTR InstName R9
SYMATTR Value 22K
SYMBOL opamp5 1856 352 R0
SYMATTR InstName U4
SYMATTR Value LF411C
SYMBOL cap 1664 416 R90
WINDOW 0 12 7 VBottom 2
WINDOW 3 32 32 VTop 2
SYMATTR InstName C4
SYMATTR Value 0.05µ
SYMBOL res 1632 384 R90
WINDOW 0 0 56 VBottom 2
WINDOW 3 16 108 VTop 2
SYMATTR InstName R10
SYMATTR Value 10K
SYMBOL res 1744 384 R90
WINDOW 0 0 56 VBottom 2
WINDOW 3 16 0 VTop 2
SYMATTR InstName R11
SYMATTR Value 10K
SYMBOL res 1712 416 R0
SYMATTR InstName R12
SYMATTR Value 22K
SYMBOL opamp5 2352 352 R0
SYMATTR InstName U5
SYMATTR Value LF411C
SYMBOL res 2240 384 R90
WINDOW 0 0 56 VBottom 2
WINDOW 3 16 0 VTop 2
SYMATTR InstName R14
SYMATTR Value 10K
SYMBOL res 2208 416 R0
SYMATTR InstName R15
SYMATTR Value 22K
SYMBOL res 2240 304 R90
WINDOW 0 0 56 VBottom 2
WINDOW 3 32 56 VTop 2
SYMATTR InstName R13
SYMATTR Value 10K
SYMBOL nmos 272 512 R0
SYMATTR InstName M1
SYMBOL nmos 768 512 R0
SYMATTR InstName M2
SYMBOL nmos 1264 512 R0
SYMATTR InstName M3
SYMBOL nmos 1760 512 R0
SYMATTR InstName M4
SYMBOL voltage -128 -80 R0
SYMATTR InstName V4
SYMATTR Value SINE(2.5 2.5 100)
TEXT 272 -72 Left 2 !.include LF411.cir
TEXT 344 16 Left 2 !.tran 0 0.01 0.001
